# td=(50-50,nstates=3) b3lyp/6-31g

[No Title]

0 1
 C                  3.36710900    4.28645100    0.35412700
 C                  2.91866300    2.84209400    0.30871500
 C                  3.54205000    1.86958500    1.10311800
 C                  3.15797700    0.52325200    1.06499000
 C                  3.88192100   -0.47529300    1.94466000
 C                  2.10744100    0.11421000    0.20010700
 C                  1.67183700   -1.31891200    0.18943500
 C                  2.06742600   -2.16637200   -0.78856800
 N                  1.63677700   -3.49655600   -0.88313200
 C                  2.02058700   -4.31294600   -2.03303700
 C                  0.57306300   -3.89042600   -0.05803400
 C                  0.12109500   -3.12531900    0.95422800
 C                  0.79045600   -1.81975300    1.33734400
 C                  1.47395400    1.09059900   -0.61019800
 C                  0.34188400    0.72896100   -1.58002800
 C                 -1.05308700    0.84661300   -0.98721800
 C                 -1.72666700   -0.24368100   -0.48195700
 C                 -3.01267200   -0.03936800    0.08124500
 C                 -3.64025900    1.24832200    0.12879600
 C                 -2.95238400    2.37135200   -0.41669300
 C                 -1.71631200    2.12949400   -0.94004500
 F                 -1.02926600    3.20150400   -1.50498100
 N                 -4.84975200    1.21789200    0.70200900
 O                 -5.07499100   -0.12461200    1.06820700
 N                 -3.83136200   -0.94377900    0.64247000
 O                 -3.79060400   -2.17182800    0.86852300
 C                  1.88732700    2.43142200   -0.54222400
 H                  3.49239800    4.63492800    1.38607300
 H                  4.33294500    4.42139900   -0.15125200
 H                  2.64337800    4.94380400   -0.13794400
 H                  4.35251600    2.16415500    1.76578700
 H                  4.82908700   -0.06149900    2.30451400
 H                  3.28690600   -0.74420700    2.82737400
 H                  4.09438000   -1.40495000    1.40712700
 H                  2.73402400   -1.84215600   -1.58125900
 H                  3.05820000   -4.10076900   -2.30503800
 H                  1.95304300   -5.37198600   -1.76978000
 H                  1.38558400   -4.13259000   -2.91416400
 H                  0.12406700   -4.84526600   -0.30765400
 H                 -0.72917700   -3.46465400    1.53615600
 H                  0.03896100   -1.05675900    1.59061900
 H                  1.38752700   -1.94304400    2.26003800
 H                  0.41065600    1.38516700   -2.45358400
 H                  0.47437100   -0.29716300   -1.92686600
 H                 -1.29220900   -1.23669800   -0.49809800
 H                 -3.39345800    3.35816000   -0.42032900
 H                  1.38688000    3.16749300   -1.16273200

