# opt b3lyp/6-31g

[No Title]

0 1
 C                 -5.72834508    2.78187061    4.00860931
 C                 -4.48476536    2.56351944    3.12688732
 C                 -3.29546994    3.24824699    3.41087371
 C                 -2.16381306    3.04955329    2.60850531
 C                 -0.85689392    3.80199824    2.92057815
 C                 -2.22145071    2.16613135    1.52215198
 C                 -0.97786967    1.94778413    0.64043160
 C                 -1.03698390    1.09284225   -0.40962456
 N                  0.13214363    0.85990607   -1.28094209
 C                  0.04628159   -0.50058454   -1.83102719
 C                  1.39682500    0.98773847   -0.52957561
 C                  1.51480307    1.84013501    0.51758180
 C                  0.32171861    2.69900289    0.95407577
 C                 -3.41074439    1.48140263    1.23816461
 C                 -3.47407487    0.51061676    0.04436132
 C                 -4.19246014   -0.77569531   -0.40388536
 C                 -5.49701144   -1.05188384    0.05746785
 C                 -6.09064239   -2.22884625   -0.38355032
 C                 -5.48069375   -3.08601128   -1.20997315
 C                 -4.19610054   -2.86436746   -1.69542680
 C                 -3.54076323   -1.68389500   -1.28214653
 F                 -2.29261812   -1.41715808   -1.72201575
 N                 -6.32427106   -4.09596743   -1.42642145
 O                 -7.38533107   -3.84682779   -0.75781373
 N                 -7.27390451   -2.74957580   -0.13240978
 O                 -8.22419709   -2.19856235    0.66941787
 C                 -4.54240177    1.68009345    2.04053457
 H                 -5.42135396    3.01855693    5.00592369
 H                 -6.30876107    3.58905580    3.61304663
 H                 -6.31896597    1.88971109    4.01948237
 H                 -3.25146197    3.92275864    4.24032980
 H                 -0.79457536    3.98743703    3.97254236
 H                 -0.02144082    3.20847406    2.61292983
 H                 -0.84661094    4.73288615    2.39309168
 H                 -1.95205148    0.57698444   -0.61319759
 H                 -0.86115798   -0.60323811   -2.38862522
 H                  0.88240536   -0.67853093   -2.47455815
 H                  0.05509936   -1.21027347   -1.03030008
 H                  2.23972380    0.39596511   -0.81979253
 H                  2.44463959    1.91438254    1.04178724
 H                  0.38167397    2.88717999    2.00569102
 H                  0.33580072    3.62891653    0.42496076
 H                 -2.98855668   -0.15454891    0.72753543
 H                 -4.44422827    0.94234389   -0.08722146
 H                 -6.00772604   -0.38356825    0.71884883
 H                 -3.72327854   -3.56087123   -2.35589778
 H                 -5.45045403    1.15728685    1.82370576

