# td=(50-50,nstates=3) b3lyp/6-31g

M1610 (1) TD calculation
0 1
!Put Keywords Here, check Charge and Multiplicity.
#

 M1610 (1).log

0  1
C           3.36711         4.28645         0.35413
C           2.91866         2.84209         0.30872
C           3.54205         1.86959         1.10312
C           3.15798         0.52325         1.06499
C           3.88192        -0.47529         1.94466
C           2.10744         0.11421         0.20011
C           1.67184        -1.31891         0.18943
C           2.06743        -2.16637        -0.78857
N           1.63678        -3.49656        -0.88313
C           2.02059        -4.31295        -2.03304
C           0.57306        -3.89043        -0.05803
C           0.12109        -3.12532         0.95423
C           0.79046        -1.81975         1.33734
C           1.47395         1.09060        -0.61020
C           0.34188         0.72896        -1.58003
C          -1.05309         0.84661        -0.98722
C          -1.72667        -0.24368        -0.48196
C          -3.01267        -0.03937         0.08124
C          -3.64026         1.24832         0.12880
C          -2.95238         2.37135        -0.41669
C          -1.71631         2.12949        -0.94005
F          -1.02927         3.20150        -1.50498
N          -4.84975         1.21789         0.70201
O          -5.07499        -0.12461         1.06821
N          -3.83136        -0.94378         0.64247
O          -3.79060        -2.17183         0.86852
C           1.88733         2.43142        -0.54222
H           3.49240         4.63493         1.38607
H           4.33294         4.42140        -0.15125
H           2.64338         4.94380        -0.13794
H           4.35252         2.16416         1.76579
H           4.82909        -0.06150         2.30451
H           3.28691        -0.74421         2.82737
H           4.09438        -1.40495         1.40713
H           2.73402        -1.84216        -1.58126
H           3.05820        -4.10077        -2.30504
H           1.95304        -5.37199        -1.76978
H           1.38558        -4.13259        -2.91416
H           0.12407        -4.84527        -0.30765
H          -0.72918        -3.46465         1.53616
H           0.03896        -1.05676         1.59062
H           1.38753        -1.94304         2.26004
H           0.41066         1.38517        -2.45358
H           0.47437        -0.29716        -1.92687
H          -1.29221        -1.23670        -0.49810
H          -3.39346         3.35816        -0.42033
H           1.38688         3.16749        -1.16273

