!Put Keywords Here, check Charge and Multiplicity.
#

 .\M2019_log.log

0  1
C           0.79795         4.70377         0.69342
C           1.65178         3.46550         0.52829
C           2.31224         2.88879         1.62286
C           3.07706         1.73106         1.45814
C           3.20708         1.11411         0.20248
C           4.05675        -0.10874         0.07361
C           5.41544         0.01731         0.16868
N           6.28831        -1.05795         0.08019
C           7.73955        -0.84208         0.09494
C           5.76119        -2.32356        -0.13446
C           4.42060        -2.52761        -0.23075
C           3.46663        -1.43795        -0.11414
C           2.12608        -1.66487        -0.15038
C           0.89827        -1.92892        -0.15657
C          -0.41842        -2.23685        -0.15167
C          -1.49402        -1.26860        -0.06056
C          -2.84083        -1.57645         0.04759
C          -3.40653        -2.97978         0.41481
C          -4.85054        -2.88984         0.99648
C          -2.57907        -3.64956         1.55369
C          -3.45252        -3.89207        -0.84226
C          -3.80040        -0.51245        -0.34144
O          -4.92342        -0.81073        -0.84299
C          -3.42614         0.92388        -0.16206
C          -4.53520         1.99500        -0.13660
C          -3.97215         3.37810         0.26825
C          -5.63024         1.60487         0.89405
C          -5.17614         2.12724        -1.54776
C          -2.11299         1.21184        -0.07165
C          -1.04411         0.17630        -0.16311
C           2.55303         1.68644        -0.91647
C           1.79290         2.85035        -0.72675
H           1.15434         5.32838         1.51942
H           0.79570         5.31359        -0.21640
H          -0.24665         4.44228         0.91176
H           2.22853         3.34451         2.60535
H           5.87852         0.98514         0.31543
H           7.97719         0.00803         0.73860
H           8.23688        -1.72754         0.49763
H           8.12914        -0.64386        -0.91146
H           6.48006        -3.12925        -0.21168
H           4.04600        -3.53239        -0.38089
H          -0.67700        -3.27848        -0.29321
H          -4.88637        -2.19752         1.84704
H          -5.56978        -2.55488         0.25244
H          -5.14292        -3.88237         1.36020
H          -1.55129        -3.89218         1.28697
H          -2.54785        -2.99496         2.43276
H          -3.07344        -4.58358         1.84645
H          -2.45806        -4.04488        -1.27653
H          -3.86486        -4.87605        -0.58282
H          -4.09335        -3.43848        -1.60488
H          -3.48640         3.34562         1.25120
H          -3.24940         3.75632        -0.46468
H          -4.79432         4.10081         0.32206
H          -5.20402         1.51972         1.90158
H          -6.40765         2.37856         0.91942
H          -6.09648         0.65447         0.62728
H          -4.42194         2.42622        -2.28633
H          -5.61418         1.17756        -1.85796
H          -5.95947         2.89631        -1.53006
H          -1.76774         2.23512         0.03554
H          -0.48766         0.31766        -1.10382
H          -0.28785         0.35762         0.61582
H           1.30401         3.29707        -1.58920
C           2.68049         1.08492        -2.29885
H           3.73060         0.93452        -2.57669
H           2.19231         0.10476        -2.35297
H           2.22147         1.73366        -3.05084
H           3.57667         1.28900         2.31499

