# td=(50-50,nstates=3) b3lyp/6-31g

M2451 TD calculation
0 1
!Put Keywords Here, check Charge and Multiplicity.
#

 M2451.log

0  1
C          -1.92775         4.23261         1.19631
C          -0.84885         3.22472         0.86752
C           0.40799         3.28418         1.48738
C           1.42288         2.35994         1.20884
C           2.76441         2.51085         1.89500
C           1.18458         1.31935         0.27164
C           2.25422         0.32315        -0.04856
C           2.87283         0.34638        -1.25362
N           3.84809        -0.57018        -1.65204
C           4.63130        -0.34646        -2.86499
C           4.21116        -1.57557        -0.74333
C           3.65929        -1.68803         0.47790
C           2.61278        -0.72690         1.00629
C          -0.08588         1.25329        -0.35002
C          -0.37248         0.15830        -1.37251
N          -1.79489        -0.23170        -1.41617
N          -2.67427         0.36028        -2.22980
C          -3.96812        -0.08686        -1.79165
O          -5.05794         0.23008        -2.28929
N          -3.76985        -0.96896        -0.67843
N          -2.44103        -1.00536        -0.49278
C          -1.81111        -1.78954         0.52581
C          -0.89908        -2.79296         0.17809
C          -0.32217        -3.56475         1.19155
C          -0.67205        -3.34503         2.52952
C          -1.60478        -2.35266         2.85850
C          -2.18040        -1.56788         1.85682
C          -1.07640         2.20241        -0.06031
H          -2.41782         3.99478         2.15018
H          -1.51593         5.24404         1.28857
H          -2.70412         4.25153         0.42551
H           0.61106         4.08452         2.19505
H           2.91807         3.54379         2.22282
H           2.83988         1.87354         2.78626
H           3.58789         2.23587         1.22853
H           2.63018         1.10328        -1.99289
H           4.01032         0.14621        -3.61868
H           5.51938         0.27734        -2.68624
H           4.96032        -1.30650        -3.27386
H           4.96403        -2.26757        -1.10392
H           3.97272        -2.50496         1.12002
H           1.70384        -1.27312         1.31171
H           2.96632        -0.24190         1.93263
H          -0.16866         0.48435        -2.39526
H           0.23123        -0.72616        -1.17532
H          -0.66716        -2.98316        -0.86381
H           0.38528        -4.34472         0.93269
H          -0.22795        -3.95159         3.31152
H          -1.88470        -2.18936         3.89327
H          -2.91005        -0.80139         2.08670
H          -2.03124         2.15068        -0.57364

