# opt b3lyp/6-31g

[No Title]

0 2
 C                 -1.77578498    3.76132938   -0.93629013
 C                 -2.80470325    2.60218057   -0.80778067
 C                 -2.37879428    1.30289805   -0.47672774
 C                 -3.31338972    0.22903367   -0.33412077
 C                 -4.69969054    0.42698426   -0.53900548
 C                 -5.64580336   -0.69397150   -0.52194050
 C                 -6.84768591   -0.38108823   -1.08326900
 N                 -7.90357030   -1.32538386   -1.50126053
 C                 -9.22937545   -0.73530128   -1.20296414
 C                 -7.80749106   -2.63636256   -0.80431364
 C                 -6.62098031   -3.15187145   -0.34816082
 C                 -5.44029542   -2.19670416   -0.01868390
 C                 -4.29167629   -2.64848591    0.63982271
 C                 -5.10090374    1.82246488   -0.86880437
 C                 -6.58324680    2.07648250   -1.05815363
 C                 -4.15767596    2.85977828   -1.03017485
 H                 -0.82255849    3.37596263   -1.23693702
 H                 -2.11130692    4.47168316   -1.66773113
 H                 -1.68287454    4.24492351    0.01148396
 H                 -1.31935574    1.13117768   -0.33795031
 H                 -6.84658195    0.62789117   -1.19703185
 H                 -9.33641394    0.17945206   -1.73542333
 H                 -9.97082903   -1.43622284   -1.49533205
 H                 -9.35177855   -0.53066788   -0.16863213
 H                 -8.70541541   -3.20277769   -0.65083940
 H                 -6.54176020   -4.22024224   -0.20911292
 H                 -6.84600946    1.15147772   -1.25606288
 H                 -7.01747354    2.41102883   -0.15963817
 H                 -6.82085348    2.79376469   -1.83884121
 H                 -4.46046333    3.85256433   -1.33005725
 C                 -3.71617426   -4.12273581    0.31542038
 C                 -2.37846752   -4.35263774    0.55268717
 H                 -4.33188223   -4.92451043   -0.17557083
 C                 -1.09117622   -4.70684615    0.73765735
 C                  0.35206542   -5.18672560    0.95296487
 C                  0.60955063   -6.45670865    1.48329414
 C                  1.47121697   -4.38804712    0.47727050
 C                  1.94659061   -6.91039841    1.60582277
 C                  2.79142592   -4.84287020    0.67013268
 H                  1.34986462   -3.43558011   -0.06789609
 C                  3.03926134   -6.09096490    1.25286495
 H                  2.12776205   -7.91084513    1.96301299
 H                  4.04499917   -6.44345379    1.41886670
 S                 -0.72516306   -7.52360966    1.94762554
 H                 -0.40270494   -8.07394000    3.06644979
 O                 -0.96102218   -8.59742116    0.91624379
 O                 -1.94806830   -6.70936655    2.10367542
 C                  3.95070706   -3.95556473    0.21965560
 H                  3.72101628   -3.50217295   -0.72577151
 H                  4.08910472   -3.20544480    0.95615469
 H                  4.84458425   -4.53695346    0.11370943
 C                 -2.78724035   -1.16733973    0.01061239
 H                 -3.46316887   -1.62750468    0.68465846
 H                 -2.70732656   -1.76111682   -0.88340088
 H                 -1.81996317   -1.08476409    0.45773810
 H                 -4.49077342   -2.60869683    1.69038312

