# opt b3lyp/6-31g

  0  1
C 0    6.114042    4.805302   -0.488923
C 0    5.444775    3.673935    0.280246
O 0    4.134669    3.500640   -0.187938
C 0    3.538906    2.507959    0.482803
O 0    4.141012    1.916399    1.346973
C 0    2.280015    2.171507    0.197232
O 0    1.677909    2.763066   -0.666938
C 0    1.678464    1.169180    0.874490
C 0    0.970064    1.444600    2.044021
C 0    0.349095    0.409685    2.743308
C 0    0.436465   -0.900522    2.272964
C 0    1.144770   -1.175934    1.103402
C 0    1.765834   -0.141028    0.404146
C 0    2.444867   -0.404970   -0.716932
C 0    3.377348    0.385286   -1.337128
O 0    3.787662    1.605500   -0.914343
O 0    3.825251   -0.266539   -2.457438
N 0    3.163340   -1.503137   -2.555990
N 0    2.362759   -1.531992   -1.505659
C 0    1.572089   -2.529399   -1.241045
C 0    2.106789   -3.773999   -0.908545
C 0    1.258389   -4.844199   -0.624745
C 0   -0.124611   -4.669699   -0.673345
C 0   -0.659311   -3.425099   -1.005745
C 0    0.189089   -2.354899   -1.289645
H 0    7.154091    4.942875   -0.117248
H 0    6.138268    4.552889   -1.572653
H 0    5.539149    5.746473   -0.339046
H 0    5.420549    3.926348    1.363975
H 0    6.019668    2.732764    0.130369
H 0    0.901095    2.477899    2.414880
H 0   -0.209509    0.626824    3.665702
H 0   -0.053263   -1.716636    2.824438
H 0    1.213607   -2.209216    0.732469
H 0    3.197477   -3.911566   -0.870130
H 0    1.680021   -5.825785   -0.362610
H 0   -0.793636   -5.513680   -0.449513
H 0   -1.750000   -3.287501   -1.044009
H 0   -0.232549   -1.373334   -1.551852

