%nprocshared=4
%mem=4GB
#p opt b3lyp/6-31g(d)

assd

0 1
N -3.786667 -0.732894 -1.285724
O -4.185518 0.287425 -1.865163
C -4.294793 -1.024850 0.083283
F -4.298147 -2.381075 0.232695
N -5.728812 -0.611386 0.111987
O -6.026776 0.402343 0.764192
O -6.550588 -1.322239 -0.487227
C -3.461790 -0.350656 1.155573
O -2.186333 -0.996606 1.365338
C -1.107082 -0.477823 0.663308
N -1.320015 0.619500 -0.097183
N -0.264674 1.099470 -0.786640
C 0.999067 0.484559 -0.731259
O 2.079544 1.003174 -1.437137
C 3.302646 0.240702 -1.347436
C 4.146889 0.624879 -0.147432
F 3.472318 0.516064 1.030394
N 4.623280 2.032612 -0.265491
O 5.407545 2.302373 -1.189213
O 4.159688 2.870651 0.523291
N 5.375787 -0.206154 -0.000600
O 6.025638 -0.103513 1.051226
O 5.674077 -0.970967 -0.932115
N 1.210398 -0.613220 0.031087
N 0.158068 -1.088742 0.723939
O 0.399643 -2.108417 1.412005
O -0.499392 2.132019 -1.455610
O -2.912808 -1.492283 -1.740850
H -3.971884 -0.476088 2.119570
H -3.367087 0.734800 1.022323
H 3.842027 0.441818 -2.282304
H 3.085749 -0.835473 -1.373985

--Link1--

N -4.552857 -1.750337 1.971817
O -4.805102 -1.371004 3.125655
C -3.768024 -0.838886 1.090477
F -2.734609 -0.376244 1.846153
N -4.669109 0.312309 0.798950
O -5.756254 0.069886 0.250352
O -4.258639 1.453267 1.059565
C -3.307040 -1.500669 -0.194337
O -2.473730 -0.640438 -1.001127
C -1.116353 -0.667351 -0.697828
N -0.714913 -1.440794 0.337397
N 0.602249 -1.452252 0.617746
C 1.525755 -0.696405 -0.126204
O 2.877674 -0.708321 0.188157
C 3.729932 0.154994 -0.596755
C 3.966597 1.503163 0.055088
F 4.261092 1.372092 1.380765
N 2.775737 2.390347 -0.049018
O 1.926998 2.308752 0.856118
O 2.642657 3.092347 -1.061711
N 5.115304 2.245724 -0.543025
O 5.548290 1.857087 -1.640142
O 5.599236 3.187342 0.104040
N 1.127834 0.070354 -1.166141
N -0.190922 0.078565 -1.450059
O -0.510848 0.772865 -2.442308
O 0.929633 -2.197361 1.571289
O -4.897685 -2.849966 1.509162
H -2.801524 -2.457733 -0.009037
H -4.165231 -1.756412 -0.829554
H 3.409926 0.222657 -1.644612
H 4.683928 -0.387577 -0.624769

