%nprocshared=4
%mem=4GB
#p opt b3lyp/6-31g(d)

M405

0 0
C -0.419073 0.559731 -1.063064
C -1.456033 1.097108 -0.399968
C -2.697733 0.374098 -0.095078
C -3.915880 1.063373 -0.151304
C -5.114687 0.416183 0.159152
C -5.105645 -0.923795 0.540538
C -3.898613 -1.615527 0.616615
C -2.699852 -0.968503 0.305330
C 0.850500 1.303226 -1.378561
C 2.084445 0.695513 -0.765735
C 2.921898 -0.245403 -1.330157
C 3.986905 -0.585415 -0.442819
S 5.353171 -1.669233 -0.513871
C 5.824261 -1.188133 1.062216
C 4.995656 -0.249013 1.632145
C 3.931013 0.091670 0.743605
S 2.566323 1.173898 0.812011
H -0.468792 -0.465742 -1.422074
H -1.415876 2.130708 -0.063496
H -3.943098 2.109818 -0.446149
H -6.054251 0.959650 0.104475
H -6.037641 -1.427084 0.783839
H -3.887272 -2.657839 0.924251
H -1.767470 -1.521209 0.391296
H 0.768034 2.356598 -1.080149
H 0.969825 1.316281 -2.469980
H 2.786110 -0.671486 -2.316286
H 6.708112 -1.630482 1.501759
H 5.135663 0.171007 2.619759

--Link1--

C -0.801426 1.578253 0.467978
C -0.996022 0.305280 0.083661
C -2.320009 -0.286916 -0.153747
C -3.348487 0.413197 -0.797785
C -4.584215 -0.195743 -1.032417
C -4.800205 -1.513497 -0.634679
C -3.779857 -2.225093 -0.007445
C -2.544173 -1.616434 0.226437
C 0.520786 2.250548 0.742539
C 1.781629 1.455992 0.518696
C 2.462114 1.288820 -0.670894
C 3.613847 0.464872 -0.494461
S 4.873151 -0.135887 -1.542920
C 5.596067 -0.948900 -0.218620
C 4.927390 -0.783643 0.972557
C 3.775716 0.041784 0.795502
S 2.517386 0.643333 1.841084
H -1.664143 2.222949 0.626210
H -0.155548 -0.371890 -0.048875
H -3.195498 1.435394 -1.134102
H -5.375272 0.358199 -1.530924
H -5.761026 -1.987101 -0.818053
H -3.943486 -3.254749 0.299401
H -1.759218 -2.187628 0.717174
H 0.571194 3.145301 0.107220
H 0.499186 2.624937 1.774488
H 2.155457 1.722060 -1.614799
H 6.498412 -1.521452 -0.386047
H 5.236251 -1.221702 1.912823

