%nprocshared=4
%mem=4GB
#p opt b3lyp/6-31g(d)

Molecule

0 1
C 0.949780 0.038274 0.018917
C 0.408068 -0.809656 1.184062
C -0.657415 -0.028326 1.957238
O 1.512938 -1.071980 2.102076
C 2.014942 -2.427086 1.881163
C 3.312459 -2.369956 1.071862
C 3.071992 -1.726198 -0.283922
N 2.872506 -1.192147 -1.408658
C 4.523319 -1.610608 1.701482
C 5.762113 -2.236087 1.976333
C 6.860166 -1.522005 2.467974
C 6.772885 -0.149565 2.638503
C 5.552049 0.480743 2.438796
C 4.422173 -0.259531 2.063973
C 0.895703 -3.062391 1.158192
C 0.764025 -4.544938 0.849787
N 0.654787 -5.774834 0.593939
C -0.041599 -2.187671 0.759352
C -1.282520 -2.432327 0.024085
C -1.625415 -1.921278 -1.173928
C -2.890201 -2.118752 -1.958508
C -2.839530 -1.361596 -3.273052
C -3.737930 -0.409350 -3.567619
N -4.727201 0.039485 -2.701425
C -3.674089 0.282764 -4.909491
O -4.316405 1.306593 -5.130544
C -2.827223 -0.322320 -5.959409
C -1.946633 -1.274049 -5.633515
C -1.742710 -1.777357 -4.237916
H 0.641969 1.086350 0.110421
H 0.590931 -0.313100 -0.953968
H 2.043541 0.054930 -0.006298
H -0.237957 0.900233 2.362897
H -1.507217 0.238422 1.319086
H -1.031764 -0.599706 2.813227
H 2.166716 -2.885854 2.864904
H 3.680641 -3.380364 0.857828
H 5.920780 -3.304675 1.836022
H 7.788211 -2.042021 2.694318
H 7.646170 0.423234 2.938077
H 5.479523 1.560871 2.549281
H 3.478187 0.276323 1.993222
H -1.992418 -3.101731 0.508890
H -0.974315 -1.273688 -1.737566
H -3.007797 -3.189893 -2.160678
H -3.763540 -1.841711 -1.357758
H -4.453643 0.024540 -1.735107
H -5.053195 0.970190 -3.002053
H -2.953061 0.052368 -6.965395
H -1.323507 -1.708252 -6.417582
H -0.775483 -1.409987 -3.878088
H -1.682716 -2.870760 -4.279324

--Link1--

C 0.949780 0.038274 0.018917
C 0.408068 -0.809656 1.184062
C -0.657415 -0.028326 1.957238
O 1.512938 -1.071980 2.102076
C 2.014942 -2.427086 1.881163
C 3.312459 -2.369956 1.071862
C 3.071992 -1.726198 -0.283922
N 2.872506 -1.192147 -1.408658
C 4.523319 -1.610608 1.701482
C 5.762113 -2.236087 1.976333
C 6.860166 -1.522005 2.467974
C 6.772885 -0.149565 2.638503
C 5.552049 0.480743 2.438796
C 4.422173 -0.259531 2.063973
C 0.895703 -3.062391 1.158192
C 0.764025 -4.544938 0.849787
N 0.654787 -5.774834 0.593939
C -0.041599 -2.187671 0.759352
C -1.282520 -2.432327 0.024085
C -1.625415 -1.921278 -1.173928
C -2.890201 -2.118752 -1.958508
C -4.070012 -2.366999 -1.036393
C -4.821287 -1.356269 -0.573061
N -4.668115 -0.024794 -0.939274
C -5.955975 -1.650497 0.380685
O -6.804925 -0.802017 0.643415
C -6.003329 -2.989235 1.006123
C -5.236665 -3.972970 0.524534
C -4.315005 -3.813940 -0.645017
H 0.641969 1.086350 0.110421
H 0.590931 -0.313100 -0.953968
H 2.043541 0.054930 -0.006298
H -0.237957 0.900233 2.362897
H -1.507217 0.238422 1.319086
H -1.031764 -0.599706 2.813227
H 2.166716 -2.885854 2.864904
H 3.680641 -3.380364 0.857828
H 5.920780 -3.304675 1.836022
H 7.788211 -2.042021 2.694318
H 7.646170 0.423234 2.938077
H 5.479523 1.560871 2.549281
H 3.478187 0.276323 1.993222
H -1.992418 -3.101731 0.508890
H -0.974315 -1.273688 -1.737566
H -3.075187 -1.213935 -2.549379
H -2.766413 -2.921966 -2.693287
H -4.360773 0.099427 -1.887397
H -5.537994 0.490851 -0.738568
H -6.683375 -3.117283 1.836408
H -5.285684 -4.958164 0.992048
H -4.740503 -4.359324 -1.494413
H -3.362998 -4.293861 -0.391638

